Version 4
SHEET 1 2732 4924
WIRE -1952 16 -2160 16
WIRE -1872 16 -1952 16
WIRE -1184 16 -1872 16
WIRE -1104 16 -1184 16
WIRE -432 16 -1104 16
WIRE -320 16 -432 16
WIRE -1872 80 -1872 16
WIRE -1184 80 -1184 16
WIRE -432 80 -432 16
WIRE -1952 128 -1952 16
WIRE -1872 128 -1952 128
WIRE -1184 128 -1200 128
WIRE -1104 128 -1104 16
WIRE -1104 128 -1184 128
WIRE -320 128 -320 16
WIRE -320 128 -432 128
WIRE -1760 160 -1824 160
WIRE -1312 160 -1760 160
WIRE -1232 160 -1312 160
WIRE -1312 224 -1312 160
WIRE -480 224 -480 160
WIRE -480 224 -1312 224
WIRE -1872 272 -1872 176
WIRE -1760 272 -1760 160
WIRE -1760 272 -1872 272
WIRE -1184 304 -1184 176
WIRE -1184 304 -1328 304
WIRE -1056 304 -1184 304
WIRE -1328 352 -1328 304
WIRE -1056 352 -1056 304
WIRE -1104 400 -1104 128
WIRE -1104 400 -1328 400
WIRE -1056 400 -1104 400
WIRE -2160 432 -2160 16
WIRE -1376 432 -1552 432
WIRE -832 432 -1008 432
WIRE -432 432 -432 176
WIRE -432 432 -528 432
WIRE -176 432 -432 432
WIRE -1552 448 -1552 432
WIRE -832 448 -832 432
WIRE -176 448 -176 432
WIRE -1552 560 -1552 528
WIRE -832 560 -832 528
WIRE -832 560 -1552 560
WIRE -176 560 -176 512
WIRE -1872 576 -1872 272
WIRE -1552 624 -1552 560
WIRE -1328 640 -1328 448
WIRE -1248 640 -1328 640
WIRE -1056 640 -1056 448
WIRE -944 640 -1056 640
WIRE -896 640 -944 640
WIRE -688 640 -816 640
WIRE -528 640 -528 432
WIRE -528 640 -624 640
WIRE -432 640 -432 432
WIRE -1328 656 -1328 640
WIRE -1056 656 -1056 640
WIRE -320 688 -432 688
WIRE -1328 704 -1360 704
WIRE -1024 704 -1056 704
WIRE -944 720 -944 640
WIRE -480 720 -944 720
WIRE -1248 736 -1248 640
WIRE -1248 736 -1280 736
WIRE -1104 736 -1248 736
WIRE -2160 848 -2160 512
WIRE -1872 848 -1872 656
WIRE -1872 848 -2160 848
WIRE -1552 848 -1552 704
WIRE -1552 848 -1872 848
WIRE -1360 848 -1360 704
WIRE -1360 848 -1552 848
WIRE -1328 848 -1328 752
WIRE -1328 848 -1360 848
WIRE -1056 848 -1056 752
WIRE -1056 848 -1328 848
WIRE -1024 848 -1024 704
WIRE -1024 848 -1056 848
WIRE -432 848 -432 736
WIRE -432 848 -1024 848
WIRE -320 848 -320 688
WIRE -320 848 -432 848
WIRE -1552 944 -1552 848
WIRE -1120 1344 -1360 1344
WIRE -1360 1424 -1360 1344
WIRE -1360 1440 -1360 1424
WIRE -1264 1488 -1360 1488
WIRE -1408 1520 -1616 1520
WIRE -1616 1536 -1616 1520
WIRE -1616 1632 -1616 1616
WIRE -1424 1632 -1616 1632
WIRE -1360 1632 -1360 1536
WIRE -1360 1632 -1424 1632
WIRE -1264 1632 -1264 1488
WIRE -1264 1632 -1360 1632
WIRE -1120 1632 -1120 1424
WIRE -1120 1632 -1264 1632
WIRE -1424 1664 -1424 1632
FLAG -176 560 0
FLAG -1552 944 0
FLAG -1360 1424 ds
FLAG -1424 1664 0
SYMBOL voltage -2160 416 R0
WINDOW 123 0 0 Left 0
WINDOW 39 0 0 Left 0
SYMATTR InstName V1
SYMATTR Value 3.3
SYMBOL nmos4 -1280 656 M0
SYMATTR InstName M3
SYMATTR Value MODN
SYMATTR Value2 l=1.4u w=18.87u
SYMBOL nmos4 -1104 656 R0
SYMATTR InstName M4
SYMATTR Value MODN
SYMATTR Value2 l=1.4u w=18.87u
SYMBOL pmos4 -1376 352 R0
SYMATTR InstName M5
SYMATTR Value MODP
SYMATTR Value2 l=1.4u w=77.55u
SYMBOL pmos4 -1008 352 M0
SYMATTR InstName M6
SYMATTR Value MODP
SYMATTR Value2 l=1.4u w=77.55u
SYMBOL pmos4 -1232 80 R0
SYMATTR InstName M7
SYMATTR Value MODP
SYMATTR Value2 l=1.4u w=155.10u
SYMBOL pmos4 -1824 80 M0
SYMATTR InstName M8
SYMATTR Value MODP
SYMATTR Value2 l=1.4u w=31.02u
SYMBOL current -1872 576 R0
WINDOW 123 0 0 Left 0
WINDOW 39 0 0 Left 0
SYMATTR InstName I1
SYMATTR Value 10µ
SYMBOL pmos4 -480 80 R0
SYMATTR InstName M9
SYMATTR Value MODP
SYMATTR Value2 l=1.4u w=155.10u
SYMBOL nmos4 -480 640 R0
SYMATTR InstName M10
SYMATTR Value MODN
SYMATTR Value2 l=1.4u w=35.94u
SYMBOL cap -192 448 R0
SYMATTR InstName CL1
SYMATTR Value 5p
SYMATTR SpiceLine V=25 Irms=0 Rser=0 Lser=0 mfg="Murata" pn="GCM0335C1E5R0CA16" type="C0G"
SYMBOL voltage -1552 608 R0
WINDOW 123 24 124 Left 2
SYMATTR Value2 AC 10u
SYMATTR InstName V2
SYMATTR Value 1.65
SYMBOL voltage -1552 544 R180
WINDOW 0 24 96 Left 2
WINDOW 3 24 16 Left 2
WINDOW 123 24 -12 Left 2
WINDOW 39 0 0 Left 0
SYMATTR InstName V4
SYMATTR Value SINE(0 10u 60)
SYMATTR Value2 AC 10u
SYMBOL voltage -832 432 R0
WINDOW 123 24 124 Left 2
WINDOW 39 0 0 Left 0
SYMATTR Value2 AC 10u
SYMATTR InstName V3
SYMATTR Value SINE(0 10u 60)
SYMBOL res -800 624 R90
WINDOW 0 0 56 VBottom 2
WINDOW 3 32 56 VTop 2
SYMATTR InstName R1
SYMATTR Value 1000
SYMBOL cap -624 624 R90
WINDOW 0 0 32 VBottom 2
WINDOW 3 32 32 VTop 2
SYMATTR InstName C1
SYMATTR Value 5p
SYMBOL nmos4 -1408 1440 R0
SYMATTR InstName M1
SYMATTR Value MODN
SYMATTR Value2 l=1.4u w=1.4u
SYMBOL voltage -1616 1520 R0
WINDOW 123 0 0 Left 0
WINDOW 39 0 0 Left 0
SYMATTR InstName V5
SYMATTR Value {X}
SYMBOL voltage -1120 1328 R0
WINDOW 123 0 0 Left 0
WINDOW 39 0 0 Left 0
SYMATTR InstName V6
SYMATTR Value 3.3
TEXT -1448 4888 Left 2 !;tran 1
TEXT 496 -448 Left 2 !.MODEL MODN NMOS LEVEL=7\n*LEVEL=49 \n* ----------------------------------------------------------------------\n************************* SIMULATION PARAMETERS ************************\n* ----------------------------------------------------------------------\n* format    : HSPICE -> retyped for PSPICE\n* model     : MOS BSIM3v3\n* process   : C35\n* revision : 4.0; \n* extracted : B10866 ; 2002-12; ese(5487)\n* doc#      : ENG-182 REV_6\n* ----------------------------------------------------------------------\n*                        TYPICAL MEAN CONDITION\n* ----------------------------------------------------------------------\n*\n*        *** Flags ***\n+MOBMOD =1.000e+00 CAPMOD =2.000e+00 \n+NLEV   =0 NOIMOD =3 VERSION=3.240e+00 \n*        *** Threshold voltage related model parameters ***\n+K1     =5.0296e-01 \n+K2     =3.3985e-02 K3     =-1.136e+00 K3B    =-4.399e-01 \n+NCH    =2.611e+17 VTH0   =4.979e-01 \n+VOFF   =-8.925e-02 DVT0   =5.000e+01 DVT1   =1.039e+00 \n+DVT2   =-8.375e-03 KETA   =2.032e-02 \n+PSCBE1 =1.000e+30 PSCBE2 =1.000e-06 \n+DVT0W  =1.089e-01 DVT1W  =6.671e+04 DVT2W  =-1.352e-02 \n*        *** Mobility related model parameters ***\n+UA     =4.705e-12 UB     =2.137e-18 UC     =1.000e-20 \n+U0     =4.758e+02 \n*        *** Subthreshold related parameters ***\n+DSUB   =5.000e-01 ETA0   =1.415e-02 ETAB   =-1.221e-01 \n+NFACTOR=4.136e-01 \n*        *** Saturation related parameters ***\n+EM     =4.100e+07 PCLM   =6.948e-01 \n+PDIBLC1=3.571e-01 PDIBLC2=2.065e-03 DROUT  =5.000e-01 \n+A0     =2.541e+00 A1     =0.000e+00 A2     =1.000e+00 \n+PVAG   =0.000e+00 VSAT   =1.338e+05 AGS    =2.408e-01 \n+B0     =4.301e-09 B1     =0.000e+00 DELTA  =1.442e-02 \n+PDIBLCB=3.222e-01 \n*        *** Geometry modulation related parameters ***\n+W0     =2.673e-07 DLC    =3.0000e-08 \n+DWC    =9.403e-08 DWB    =0.000e+00 DWG    =0.000e+00 \n+LL     =0.000e+00 LW     =0.000e+00 LWL    =0.000e+00 \n+LLN    =1.000e+00 LWN    =1.000e+00 WL     =0.000e+00 \n+WW     =-1.297e-14 WWL    =-9.411e-21 WLN    =1.000e+00 \n+WWN    =1.000e+00 \n*        *** Temperature effect parameters ***\n+TNOM   =27.0 AT     =3.300e+04 UTE    =-1.800e+00 \n+KT1    =-3.302e-01 KT2    =2.200e-02 KT1L   =0.000e+00 \n+UA1    =0.000e+00 UB1    =0.000e+00 UC1    =0.000e+00 PRT    =0.000e+00 \n*         *** Overlap capacitance related and dynamic model parameters   ***\n+CGSO   =1.200e-10 CGDO   =1.200e-10 CGBO   =1.100e-10 \n+CGDL   =1.310e-10 CGSL   =1.310e-10 CKAPPA =6.000e-01 \n+CF     =0.000e+00 ELM    =5.000e+00 \n+XPART  =1.000e+00 CLC    =1.000e-15 CLE    =6.000e-01 \n+\n*        *** Parasitic resistance and capacitance related model parameters ***\n+RDSW   =3.449e+02 \n+CDSC   =0.000e+00 CDSCB  =1.500e-03 CDSCD  =1.000e-03 \n+PRWB   =-2.416e-01 PRWG   =0.000e+00 CIT    =4.441e-04 \n*        *** Process and parameters extraction related model parameters ***\n+TOX    =7.575e-09 NGATE  =0.000e+00 \n+NLX    =1.888e-07 \n+XL     =0.000e+00 XW     =0.000e+00 \n*        *** Substrate current related model parameters ***\n+ALPHA0 =2.600e-06 ALPHA1 =5.000e+00 BETA0  =2.100e+01 \n*        *** Noise effect related model parameters ***\n+AF     =1.507e+00 KF     =2.170e-26 EF     =1.000e+00 \n+NOIA   =1.121e+19 NOIB   =5.336e+04 NOIC   =-5.892e-13 \n*        *** Common extrinsic model parameters ***\n*+ACM    =2        \n+RD     =0.000e+00 RS     =0.000e+00 RSH    =7.000e+01 \n+RDC    =0.000e+00 RSC    =0.000e+00 \n+LINT   =-5.005e-08  WINT   =9.403e-08 \n+LDIF   =0.000e+00 \n*HDIF   =8.000e-07\n*+WMLT   =1.000e+00 \n*+LMLT   =1.000e+00 \n+XJ     =3.000e-07 \n+JS     =5.100e-07 JSW    =0.600e-12 IS     =0.000e+00 \n+N      =1.000e+00 \n*+NDS    =1000. \n*+VNDS   =-1.000e+00 \n*+CBD    =0.000e+00 \n*+CBS    =0.000e+00 \n+CJ     =8.400e-04 CJSW   =2.500e-10 \n+FC     =0.000e+00 \n+MJ     =3.400e-01 MJSW   =2.300e-01 \n+XTI    =2.026e+00 \n+TT     =0.000e+00 \n+PBSW    =6.900e-01 \n* ----------------------------------------------------------------------\n* Owner: austriamicrosystems\n* HIT-Kit: Digital
TEXT 1680 -448 Left 2 !.MODEL MODP PMOS Level = 7\n*LEVEL=49 \n* ----------------------------------------------------------------------\n************************* SIMULATION PARAMETERS ************************\n* ----------------------------------------------------------------------\n* format    : HSPICE -> revised for PSPICE\n* model     : MOS BSIM3v3\n* process   : C35\n* revision : 4.1; \n* extracted : C64685 ; 2002-12; ese(5487)\n* doc#      : ENG-182 REV_6\n* ----------------------------------------------------------------------\n*                        TYPICAL MEAN CONDITION\n* ----------------------------------------------------------------------\n*\n*        *** Flags ***\n+MOBMOD =1.000e+00 CAPMOD =2.000e+00 \n+NLEV   =0 NOIMOD =3 VERSION=3.24e+00 \n*        *** Threshold voltage related model parameters ***\n+K1     =5.9959e-01 \n+K2     =-6.038e-02 K3     =1.103e+01 K3B    =-7.580e-01 \n+NCH    =9.240e+16 VTH0   =-6.915e-01 \n+VOFF   =-1.170e-01 DVT0   =1.650e+00 DVT1   =3.868e-01 \n+DVT2   =1.659e-02 KETA   =-1.440e-02 \n+PSCBE1 =1.000e+30 PSCBE2 =1.000e-06 \n+DVT0W  =1.879e-01 DVT1W  =7.335e+04 DVT2W  =-6.312e-03 \n*        *** Mobility related model parameters ***\n+UA     =5.394e-10 UB     =1.053e-18 UC     =1.000e-20 \n+U0     =1.482e+02 \n*        *** Subthreshold related parameters ***\n+DSUB   =5.000e-01 ETA0   =2.480e-01 ETAB   =-3.917e-03 \n+NFACTOR=1.214e+00 \n*        *** Saturation related parameters ***\n+EM     =4.100e+07 PCLM   =3.184e+00 \n+PDIBLC1=1.000e-04 PDIBLC2=1.000e-20 DROUT  =5.000e-01 \n+A0     =5.850e-01 A1     =0.000e+00 A2     =1.000e+00 \n+PVAG   =0.000e+00 VSAT   =1.158e+05 AGS    =2.468e-01 \n+B0     =8.832e-08 B1     =0.000e+00 DELTA  =1.000e-02 \n+PDIBLCB=1.000e+00 \n*        *** Geometry modulation related parameters ***\n+W0     =1.000e-10 DLC    =2.4500e-08 \n+DWC    =3.449e-08 DWB    =0.000e+00 DWG    =0.000e+00 \n+LL     =0.000e+00 LW     =0.000e+00 LWL    =0.000e+00 \n+LLN    =1.000e+00 LWN    =1.000e+00 WL     =0.000e+00 \n+WW     =1.894e-16 WWL    =-1.981e-21 WLN    =1.000e+00 \n+WWN    =1.040e+00 \n*        *** Temperature effect parameters ***\n+TNOM   =27.0 AT     =3.300e+04 UTE    =-1.300e+00 \n+KT1    =-5.403e-01 KT2    =2.200e-02 KT1L   =0.000e+00 \n+UA1    =0.000e+00 UB1    =0.000e+00 UC1    =0.000e+00 PRT    =0.000e+00 \n*         *** Overlap capacitance related and dynamic model parameters   ***\n+CGSO   =8.600e-11 CGDO   =8.600e-11 CGBO   =1.100e-10 \n+CGDL   =1.080e-10 CGSL   =1.080e-10 CKAPPA =6.000e-01 \n+CF     =0.000e+00 ELM    =5.000e+00 \n+XPART  =1.000e+00 CLC    =1.000e-15 CLE    =6.000e-01 \n+\n*        *** Parasitic resistance and capacitance related model parameters ***\n+RDSW   =1.033e+03 \n+CDSC   =2.589e-03 CDSCB  =2.943e-04 CDSCD  =4.370e-04 \n+PRWB   =-9.731e-02 PRWG   =1.477e-01 CIT    =0.000e+00 \n*        *** Process and parameters extraction related model parameters ***\n+TOX    =7.754e-09 NGATE  =0.000e+00 \n+NLX    =1.770e-07 \n+XL     =0.000e+00 XW     =0.000e+00 \n*        *** Substrate current related model parameters ***\n+ALPHA0 =1.000e-09 ALPHA1 =1.500e+00 BETA0  =3.250e+01 \n*        *** Noise effect related model parameters ***\n+AF     =1.461e+00 KF     =1.191e-26 EF     =1.000e+00 \n+NOIA   =5.245e+17 NOIB   =4.816e+03 NOIC   =8.036e-13 \n*        *** Common extrinsic model parameters ***\n*+ACM    =2        \n+RD     =0.000e+00 RS     =0.000e+00 RSH    =1.290e+02 \n+RDC    =0.000e+00 RSC    =0.000e+00 \n+LINT   =-7.130e-08  WINT   =3.449e-08 \n+LDIF   =0.000e+00\n*HDIF   =8.000e-07 \n*+WMLT   =1.000e+00 \n*+LMLT   =1.000e+00 XJ     =3.000e-07 \n+JS     =2.800e-07 JSW    =3.700e-13 IS     =0.000e+00 \n+N      =1.000e+00 \n*+NDS    =1000. \n*+VNDS   =-1.000e+00 \n*+CBD    =0.000e+00 \n*+CBS    =0.000e+00 \n+CJ     =1.360e-03 CJSW   =3.500e-10 \n+FC     =0.000e+00 MJ     =5.400e-01 MJSW   =4.600e-01 \n+XTI    =1.973e+00 TT     =0.000e+00 \n*+PB     =1.020e+00 \n+PBSW     =1.020e+00\n*+PHP    =1.020e+00 \n* ----------------------------------------------------------------------\n* Owner: austriamicrosystems\n* HIT-Kit: Digital
TEXT -2048 1520 Left 2 !.step param X list 0.4 0.6 0.8 1 1.2
TEXT -2194 4908 Left 2 !;tran 1
TEXT -2040 1568 Left 2 !.dc V6 0 3.3 0.001
